Version 4
SHEET 1 912 680
WIRE 256 160 32 160
WIRE 304 160 256 160
WIRE 480 160 384 160
WIRE 208 192 144 192
WIRE 208 240 208 192
WIRE 144 288 144 192
WIRE 256 288 256 160
WIRE 304 288 256 288
WIRE 416 288 368 288
WIRE 32 304 32 160
WIRE 112 304 32 304
WIRE 304 320 176 320
WIRE 416 320 416 288
WIRE 416 320 368 320
WIRE -96 336 -128 336
WIRE 32 336 -16 336
WIRE 112 336 32 336
WIRE 32 384 32 336
WIRE 144 400 144 352
WIRE 528 400 528 368
WIRE 32 512 32 464
WIRE 416 512 416 320
WIRE 528 512 528 480
FLAG 416 512 0
FLAG 480 160 V_DD
IOPIN 480 160 In
FLAG 32 512 0
FLAG 208 240 0
FLAG 528 512 0
FLAG 528 368 V_DD
IOPIN 528 368 Out
FLAG -128 336 V_DD
IOPIN -128 336 In
FLAG 144 400 V_DD
IOPIN 144 400 In
SYMBOL OpAmps\\LT1006 144 384 M180
SYMATTR InstName U1
SYMBOL res 400 144 R90
WINDOW 0 0 56 VBottom 2
WINDOW 3 32 56 VTop 2
SYMATTR InstName R_sense
SYMATTR Value 100
SYMBOL voltage 528 384 R0
SYMATTR InstName V_DD
SYMATTR Value 5
SYMBOL res 0 320 R90
WINDOW 0 0 56 VBottom 2
WINDOW 3 32 56 VTop 2
SYMATTR InstName R1
SYMATTR Value 40k
SYMBOL res 16 368 R0
SYMATTR InstName R2
SYMATTR Value 10k
SYMBOL BFP760 336 304 R0
SYMATTR InstName U2
TEXT -200 48 Left 2 ;Simulación:
TEXT -176 96 Left 2 !.op
TEXT -176 72 Left 2 !.inc infineon-rftransistor-spice.lib-simulationmodels-en.lib
