Version 4
SHEET 1 1072 680
WIRE 16 112 -144 112
WIRE 144 112 16 112
WIRE 320 112 304 112
WIRE 432 112 400 112
WIRE 496 112 432 112
WIRE 560 112 496 112
WIRE 640 112 560 112
WIRE -144 160 -144 112
WIRE 16 160 16 112
WIRE 560 160 560 112
WIRE 224 240 224 208
WIRE 432 240 432 112
WIRE 432 240 224 240
WIRE 496 240 496 112
WIRE -144 288 -144 240
WIRE -64 288 -144 288
WIRE 16 288 16 224
WIRE 16 288 -64 288
WIRE 560 288 560 240
WIRE 624 288 560 288
WIRE -64 304 -64 288
WIRE 560 368 560 288
WIRE 592 368 560 368
WIRE 704 368 656 368
WIRE 496 400 496 320
WIRE 592 400 496 400
WIRE 704 400 704 368
WIRE 704 400 656 400
WIRE 704 448 704 400
FLAG -64 304 0
FLAG 704 448 0
FLAG 640 112 V_out
IOPIN 640 112 Out
FLAG 624 288 V_C
IOPIN 624 288 Out
SYMBOL LM317-TI 224 144 R0
SYMATTR InstName U1
SYMBOL cap 0 160 R0
SYMATTR InstName C_in
SYMATTR Value 0.1µ
SYMBOL res 416 96 R90
WINDOW 0 0 56 VBottom 2
WINDOW 3 32 56 VTop 2
SYMATTR InstName R_set
SYMATTR Value 31.1
SYMBOL voltage -144 144 R0
SYMATTR InstName V_in
SYMATTR Value 12
SYMBOL res 544 144 R0
SYMATTR InstName R_C
SYMATTR Value 100
SYMBOL res 512 336 R180
WINDOW 0 36 76 Left 2
WINDOW 3 36 40 Left 2
SYMATTR InstName R_B
SYMATTR Value 23.9K
SYMBOL BFP760 624 384 R0
SYMATTR InstName U2
TEXT -104 -16 Left 2 !.inc infineon-rftransistor-spice.lib-simulationmodels-en.lib
TEXT -128 -48 Left 2 ;Simulación:
TEXT -104 16 Left 2 !.op
