Version 4
SHEET 1 900 680
WIRE 368 -128 240 -128
WIRE 496 -128 368 -128
WIRE 624 -128 496 -128
WIRE 240 -64 240 -128
WIRE 624 -64 624 -128
WIRE 368 32 368 -128
WIRE 496 32 496 -128
WIRE 80 64 16 64
WIRE 240 64 240 0
WIRE 240 64 160 64
WIRE 624 64 624 0
WIRE 816 64 624 64
WIRE 16 128 16 64
WIRE 240 128 240 64
WIRE 624 128 624 64
WIRE 816 128 816 64
WIRE 16 272 16 208
WIRE 240 272 240 192
WIRE 240 272 16 272
WIRE 368 272 368 112
WIRE 368 272 240 272
WIRE 432 272 368 272
WIRE 496 272 496 112
WIRE 496 272 432 272
WIRE 624 272 624 192
WIRE 624 272 496 272
WIRE 816 272 816 208
WIRE 816 272 624 272
WIRE 432 304 432 272
FLAG 432 304 0
SYMBOL voltage 16 112 R0
WINDOW 123 24 124 Left 2
WINDOW 39 0 0 Left 0
SYMATTR InstName V1
SYMATTR Value SINE(0 2M 18000K)
SYMATTR Value2 AC 2
SYMBOL cap 224 128 R0
SYMATTR InstName C_2
SYMATTR Value 304.35p
SYMBOL cap 224 -64 R0
SYMATTR InstName C_1
SYMATTR Value 63.27p
SYMBOL ind 352 16 R0
SYMATTR InstName L
SYMATTR Value 0.7462Á
SYMBOL res 480 16 R0
SYMATTR InstName R_P
SYMATTR Value 27159
SYMBOL cap 608 128 R0
SYMATTR InstName C_4
SYMATTR Value 70.27p
SYMBOL cap 608 -64 R0
SYMATTR InstName C_3
SYMATTR Value 205.75p
SYMBOL res 800 112 R0
SYMATTR InstName R_L
SYMATTR Value 1000
SYMBOL res 176 48 R90
WINDOW 0 0 56 VBottom 2
WINDOW 3 32 56 VTop 2
SYMATTR InstName R_G
SYMATTR Value 50
TEXT -264 -248 Left 2 ;Simulaciˇn:
TEXT -240 -184 Left 2 !.tran 0 100 0.01
