Version 4
SHEET 1 880 680
WIRE -848 -32 -896 -32
WIRE -720 -32 -768 -32
WIRE -608 -32 -720 -32
WIRE -496 -32 -608 -32
WIRE -400 -32 -496 -32
WIRE -720 0 -720 -32
WIRE -496 0 -496 -32
WIRE 128 32 64 32
WIRE 272 32 208 32
WIRE 320 32 272 32
WIRE -608 64 -608 -32
WIRE 64 96 64 32
WIRE 272 96 272 32
WIRE -720 144 -720 64
WIRE -496 144 -496 64
WIRE -720 240 -720 208
WIRE -720 240 -896 240
WIRE -608 240 -608 144
WIRE -608 240 -720 240
WIRE -496 240 -496 208
WIRE -496 240 -608 240
WIRE -400 240 -496 240
WIRE 64 240 64 176
WIRE 272 240 272 176
WIRE 272 240 64 240
WIRE 320 240 272 240
WIRE -896 256 -896 240
WIRE -400 256 -400 240
WIRE 320 256 320 240
FLAG 320 32 V_x
IOPIN 320 32 Out
FLAG 320 256 0
FLAG -400 256 0
FLAG -400 -32 Oscil.
IOPIN -400 -32 Out
FLAG -896 -32 Gen
IOPIN -896 -32 In
FLAG -896 256 0
SYMBOL res 224 16 R90
WINDOW 0 0 56 VBottom 2
WINDOW 3 32 56 VTop 2
SYMATTR InstName R_test
SYMATTR Value 4700
SYMBOL res 256 80 R0
WINDOW 3 36 68 Left 2
SYMATTR InstName R_P
SYMATTR Value ?
SYMBOL voltage 64 80 R0
SYMATTR InstName V_G
SYMATTR Value 2 V
SYMBOL ind -624 48 R0
SYMATTR InstName L
SYMATTR Value 0.7623”
SYMBOL cap -736 0 R0
SYMATTR InstName C_1
SYMATTR Value 62p
SYMBOL cap -736 144 R0
SYMATTR InstName C_2
SYMATTR Value 300p
SYMBOL cap -512 0 R0
SYMATTR InstName C_3
SYMATTR Value 202p
SYMBOL cap -512 144 R0
SYMATTR InstName C_4
SYMATTR Value 69p
SYMBOL res -752 -48 R90
WINDOW 0 0 56 VBottom 2
WINDOW 3 32 56 VTop 2
SYMATTR InstName R_test
SYMATTR Value 4700
